LTspice 24.1.9 for Windows
Circuit: Z:\home\alex\GitRepos\laserboard\AF_Simulation\SPICE_AF_MODIFIED\ReceiverFrontend_8656.net
Start Time: Sat Nov  8 07:17:01 2025
solver = Normal
Maximum thread count: 4
tnom = 27
temp = 27
method = trap
Instance "u3:M5": Length shorter than recommended for a level 2 MOSFET.
Instance "u3:M6": Length shorter than recommended for a level 2 MOSFET.
Instance "u3:M1": Length shorter than recommended for a level 2 MOSFET.
Instance "u3:M2": Length shorter than recommended for a level 2 MOSFET.
Instance "u3:M3": Length shorter than recommended for a level 2 MOSFET.
Instance "u3:M4": Length shorter than recommended for a level 2 MOSFET.
Instance "u4:M5": Length shorter than recommended for a level 2 MOSFET.
Instance "u4:M6": Length shorter than recommended for a level 2 MOSFET.
Instance "u4:M1": Length shorter than recommended for a level 2 MOSFET.
Instance "u4:M2": Length shorter than recommended for a level 2 MOSFET.
Instance "u4:M3": Length shorter than recommended for a level 2 MOSFET.
Instance "u4:M4": Length shorter than recommended for a level 2 MOSFET.
Direct Newton iteration failed to find .op point.  (Use ".option noopiter" to skip.)
Starting Gmin stepping
Gmin = 10
Gmin = 1.07374
Gmin = 0.115292
Gmin = 0.0123794
Gmin = 0.00132923
Gmin = 0.000142725
vernier = 0.5
vernier = 0.666667
Gmin = 4.65514e-05
vernier = 0.888888
Gmin = 7.53781e-06
vernier = 1
Gmin = 8.09366e-07
Gmin = 8.6905e-08
Gmin = 9.33136e-09
Gmin = 1.00195e-09
Gmin = 1.07583e-10
Gmin = 1.15517e-11
Gmin = 1.24035e-12
Gmin = 1.33182e-13
Gmin = 0
Gmin stepping succeeded in finding the operating point.

Total elapsed time: 0.409 seconds.

Files loaded:
Z:\home\alex\GitRepos\laserboard\AF_Simulation\SPICE_AF_MODIFIED\ReceiverFrontend_8656.net
C:\users\alex\Documents\LTspice\ad8656.cir

