LTspice 24.1.9 for Windows
Circuit: Z:\home\alex\GitRepos\laserboard\AF_Simulation\SPICE_AF_MODIFIED\ReceiverFrontend.net
Start Time: Sat Nov  8 07:16:05 2025
solver = Normal
Maximum thread count: 4
tnom = 27
temp = 27
method = trap
Direct Newton iteration for .op point succeeded.
Total elapsed time: 0.260 seconds.

Files loaded:
Z:\home\alex\GitRepos\laserboard\AF_Simulation\SPICE_AF_MODIFIED\ReceiverFrontend.net
C:\users\alex\AppData\Local\LTspice\lib\sub\AD8655.sub

